


 26 28  0  0  0  0  0  0  0  0999 V2000
  135.3970  128.2572  128.5272 N   0  0  0  0  0  0  0  0  0  0  0  0
  134.1894  128.9180  128.7157 C   0  0  0  0  0  0  0  0  0  0  0  0
  133.0986  128.4714  128.3717 O   0  0  0  0  0  0  0  0  0  0  0  0
  136.2280  128.7272  128.8541 H   0  0  0  0  0  0  0  0  0  0  0  0
  136.7811  125.7588  126.1809 C   0  0  0  0  0  0  0  0  0  0  0  0
  136.4970  126.9573  126.8409 C   0  0  0  0  0  0  0  0  0  0  0  0
  135.6167  126.9952  127.9298 C   0  0  0  0  0  0  0  0  0  0  0  0
  135.0177  125.8066  128.3547 C   0  0  0  0  0  0  0  0  0  0  0  0
  135.2945  124.6011  127.7019 C   0  0  0  0  0  0  0  0  0  0  0  0
  136.1763  124.5831  126.6165 C   0  0  0  0  0  0  0  0  0  0  0  0
  138.7846  126.7216  125.3390 C   0  0  0  0  0  0  0  0  0  0  0  0
  137.6579  125.8763  125.1369 O   0  0  0  0  0  0  0  0  0  0  0  0
  134.7716  123.3762  128.0243 O   0  0  0  0  0  0  0  0  0  0  0  0
  135.6966  122.3513  128.3706 C   0  0  0  0  0  0  0  0  0  0  0  0
  134.3186  130.2153  129.3698 C   0  0  0  0  0  0  0  0  0  0  0  0
  133.6022  130.8726  130.3557 C   0  0  0  0  0  0  0  0  0  0  0  0
  134.2358  132.1254  130.5618 C   0  0  0  0  0  0  0  0  0  0  0  0
  135.3078  132.1776  129.6951 C   0  0  0  0  0  0  0  0  0  0  0  0
  135.3557  131.0198  128.9747 O   0  0  0  0  0  0  0  0  0  0  0  0
  136.3474  133.1629  129.4041 C   0  0  0  0  0  0  0  0  0  0  0  0
  136.0763  134.5405  129.4492 C   0  0  0  0  0  0  0  0  0  0  0  0
  137.0733  135.4815  129.1703 C   0  0  0  0  0  0  0  0  0  0  0  0
  138.3555  135.0525  128.8423 C   0  0  0  0  0  0  0  0  0  0  0  0
  138.6480  133.6924  128.7913 C   0  0  0  0  0  0  0  0  0  0  0  0
  137.6483  132.7534  129.0710 C   0  0  0  0  0  0  0  0  0  0  0  0
  139.5844  136.2057  128.4987 Cl  0  0  0  0  0  0  0  0  0  0  0  0
 11 12  1  0  0  0
 12  5  1  0  0  0
  5  6  2  0  0  0
  6  7  1  0  0  0
  7  8  2  0  0  0
  8  9  1  0  0  0
  9 10  2  0  0  0
  9 13  1  0  0  0
 13 14  1  0  0  0
  7  1  1  0  0  0
  1  2  1  0  0  0
  2  3  2  0  0  0
  2 15  1  0  0  0
 15 16  2  0  0  0
 16 17  1  0  0  0
 17 18  2  0  0  0
 18 19  1  0  0  0
 18 20  1  0  0  0
 20 21  2  0  0  0
 21 22  1  0  0  0
 22 23  2  0  0  0
 23 24  1  0  0  0
 24 25  2  0  0  0
 23 26  1  0  0  0
 10  5  1  0  0  0
 19 15  1  0  0  0
 25 20  1  0  0  0
  1  4  1  0  0  0
M  END
> <minimizedAffinity>
-8.71918

$$$$



 26 28  0  0  0  0  0  0  0  0999 V2000
  135.7146  128.3607  128.3976 N   0  0  0  0  0  0  0  0  0  0  0  0
  134.4599  128.7618  128.8398 C   0  0  0  0  0  0  0  0  0  0  0  0
  133.4450  128.0772  128.7459 O   0  0  0  0  0  0  0  0  0  0  0  0
  136.4732  129.0124  128.5313 H   0  0  0  0  0  0  0  0  0  0  0  0
  135.6706  124.7409  127.6504 C   0  0  0  0  0  0  0  0  0  0  0  0
  135.3909  125.9942  128.2016 C   0  0  0  0  0  0  0  0  0  0  0  0
  136.0721  127.1422  127.7769 C   0  0  0  0  0  0  0  0  0  0  0  0
  137.0470  127.0194  126.7836 C   0  0  0  0  0  0  0  0  0  0  0  0
  137.3354  125.7702  126.2247 C   0  0  0  0  0  0  0  0  0  0  0  0
  136.6447  124.6353  126.6616 C   0  0  0  0  0  0  0  0  0  0  0  0
  135.6092  122.4885  128.4071 C   0  0  0  0  0  0  0  0  0  0  0  0
  134.9268  123.7132  128.1634 O   0  0  0  0  0  0  0  0  0  0  0  0
  138.2654  125.5239  125.2489 O   0  0  0  0  0  0  0  0  0  0  0  0
  139.0876  126.6158  124.8518 C   0  0  0  0  0  0  0  0  0  0  0  0
  134.4391  130.0913  129.4394 C   0  0  0  0  0  0  0  0  0  0  0  0
  133.5970  130.7322  130.3323 C   0  0  0  0  0  0  0  0  0  0  0  0
  134.1180  132.0374  130.5282 C   0  0  0  0  0  0  0  0  0  0  0  0
  135.2519  132.1354  129.7485 C   0  0  0  0  0  0  0  0  0  0  0  0
  135.4440  130.9558  129.0905 O   0  0  0  0  0  0  0  0  0  0  0  0
  136.2374  133.1846  129.4948 C   0  0  0  0  0  0  0  0  0  0  0  0
  137.5086  132.8790  128.9811 C   0  0  0  0  0  0  0  0  0  0  0  0
  138.4500  133.8852  128.7391 C   0  0  0  0  0  0  0  0  0  0  0  0
  138.1281  135.2114  129.0095 C   0  0  0  0  0  0  0  0  0  0  0  0
  136.8747  135.5388  129.5189 C   0  0  0  0  0  0  0  0  0  0  0  0
  135.9349  134.5297  129.7599 C   0  0  0  0  0  0  0  0  0  0  0  0
  139.2822  136.4519  128.7135 Cl  0  0  0  0  0  0  0  0  0  0  0  0
 11 12  1  0  0  0
 12  5  1  0  0  0
  5  6  2  0  0  0
  6  7  1  0  0  0
  7  8  2  0  0  0
  8  9  1  0  0  0
  9 10  2  0  0  0
  9 13  1  0  0  0
 13 14  1  0  0  0
  7  1  1  0  0  0
  1  2  1  0  0  0
  2  3  2  0  0  0
  2 15  1  0  0  0
 15 16  2  0  0  0
 16 17  1  0  0  0
 17 18  2  0  0  0
 18 19  1  0  0  0
 18 20  1  0  0  0
 20 21  2  0  0  0
 21 22  1  0  0  0
 22 23  2  0  0  0
 23 24  1  0  0  0
 24 25  2  0  0  0
 23 26  1  0  0  0
 10  5  1  0  0  0
 19 15  1  0  0  0
 25 20  1  0  0  0
  1  4  1  0  0  0
M  END
> <minimizedAffinity>
-7.79309

$$$$



 26 28  0  0  0  0  0  0  0  0999 V2000
  134.1955  129.7458  129.7865 N   0  0  0  0  0  0  0  0  0  0  0  0
  133.7253  129.2344  128.5832 C   0  0  0  0  0  0  0  0  0  0  0  0
  133.3324  129.9253  127.6474 O   0  0  0  0  0  0  0  0  0  0  0  0
  134.4916  129.0757  130.4803 H   0  0  0  0  0  0  0  0  0  0  0  0
  133.7643  132.7865  131.8435 C   0  0  0  0  0  0  0  0  0  0  0  0
  133.7037  131.4713  131.3753 C   0  0  0  0  0  0  0  0  0  0  0  0
  134.3152  131.1008  130.1708 C   0  0  0  0  0  0  0  0  0  0  0  0
  134.9951  132.0728  129.4325 C   0  0  0  0  0  0  0  0  0  0  0  0
  135.0624  133.3923  129.8911 C   0  0  0  0  0  0  0  0  0  0  0  0
  134.4457  133.7433  131.0962 C   0  0  0  0  0  0  0  0  0  0  0  0
  133.1557  131.9358  133.9778 C   0  0  0  0  0  0  0  0  0  0  0  0
  133.1217  132.9990  133.0327 O   0  0  0  0  0  0  0  0  0  0  0  0
  135.6968  134.4294  129.2590 O   0  0  0  0  0  0  0  0  0  0  0  0
  136.9352  134.1353  128.6219 C   0  0  0  0  0  0  0  0  0  0  0  0
  133.7343  127.7774  128.5138 C   0  0  0  0  0  0  0  0  0  0  0  0
  132.7463  126.8074  128.5047 C   0  0  0  0  0  0  0  0  0  0  0  0
  133.4007  125.5512  128.4207 C   0  0  0  0  0  0  0  0  0  0  0  0
  134.7554  125.8090  128.3823 C   0  0  0  0  0  0  0  0  0  0  0  0
  134.9545  127.1576  128.4387 O   0  0  0  0  0  0  0  0  0  0  0  0
  135.9572  124.9815  128.2981 C   0  0  0  0  0  0  0  0  0  0  0  0
  136.5868  124.7372  127.0663 C   0  0  0  0  0  0  0  0  0  0  0  0
  137.7372  123.9448  126.9886 C   0  0  0  0  0  0  0  0  0  0  0  0
  138.2709  123.3870  128.1460 C   0  0  0  0  0  0  0  0  0  0  0  0
  137.6646  123.6150  129.3782 C   0  0  0  0  0  0  0  0  0  0  0  0
  136.5137  124.4084  129.4526 C   0  0  0  0  0  0  0  0  0  0  0  0
  139.6851  122.4122  128.0553 Cl  0  0  0  0  0  0  0  0  0  0  0  0
 11 12  1  0  0  0
 12  5  1  0  0  0
  5  6  2  0  0  0
  6  7  1  0  0  0
  7  8  2  0  0  0
  8  9  1  0  0  0
  9 10  2  0  0  0
  9 13  1  0  0  0
 13 14  1  0  0  0
  7  1  1  0  0  0
  1  2  1  0  0  0
  2  3  2  0  0  0
  2 15  1  0  0  0
 15 16  2  0  0  0
 16 17  1  0  0  0
 17 18  2  0  0  0
 18 19  1  0  0  0
 18 20  1  0  0  0
 20 21  2  0  0  0
 21 22  1  0  0  0
 22 23  2  0  0  0
 23 24  1  0  0  0
 24 25  2  0  0  0
 23 26  1  0  0  0
 10  5  1  0  0  0
 19 15  1  0  0  0
 25 20  1  0  0  0
  1  4  1  0  0  0
M  END
> <minimizedAffinity>
-7.78672

$$$$



 26 28  0  0  0  0  0  0  0  0999 V2000
  134.7500  131.6759  129.0226 N   0  0  0  0  0  0  0  0  0  0  0  0
  134.2189  130.6150  129.7458 C   0  0  0  0  0  0  0  0  0  0  0  0
  134.0320  130.6333  130.9591 O   0  0  0  0  0  0  0  0  0  0  0  0
  134.8551  131.5404  128.0282 H   0  0  0  0  0  0  0  0  0  0  0  0
  134.7638  134.7248  131.1123 C   0  0  0  0  0  0  0  0  0  0  0  0
  134.4320  133.4829  130.5644 C   0  0  0  0  0  0  0  0  0  0  0  0
  135.1674  132.9375  129.5042 C   0  0  0  0  0  0  0  0  0  0  0  0
  136.2502  133.6578  128.9935 C   0  0  0  0  0  0  0  0  0  0  0  0
  136.5916  134.9017  129.5337 C   0  0  0  0  0  0  0  0  0  0  0  0
  135.8456  135.4300  130.5922 C   0  0  0  0  0  0  0  0  0  0  0  0
  132.7766  134.3663  132.3661 C   0  0  0  0  0  0  0  0  0  0  0  0
  133.9571  135.1284  132.1412 O   0  0  0  0  0  0  0  0  0  0  0  0
  137.6268  135.6986  129.1201 O   0  0  0  0  0  0  0  0  0  0  0  0
  138.8520  135.0489  128.7994 C   0  0  0  0  0  0  0  0  0  0  0  0
  133.8916  129.4482  128.9339 C   0  0  0  0  0  0  0  0  0  0  0  0
  132.7762  129.0597  128.2113 C   0  0  0  0  0  0  0  0  0  0  0  0
  133.0779  127.8011  127.6297 C   0  0  0  0  0  0  0  0  0  0  0  0
  134.3604  127.4777  128.0218 C   0  0  0  0  0  0  0  0  0  0  0  0
  134.8507  128.4767  128.8112 O   0  0  0  0  0  0  0  0  0  0  0  0
  135.2551  126.3476  127.7798 C   0  0  0  0  0  0  0  0  0  0  0  0
  136.5367  126.5382  127.2371 C   0  0  0  0  0  0  0  0  0  0  0  0
  137.3911  125.4546  127.0066 C   0  0  0  0  0  0  0  0  0  0  0  0
  136.9706  124.1654  127.3176 C   0  0  0  0  0  0  0  0  0  0  0  0
  135.7050  123.9516  127.8564 C   0  0  0  0  0  0  0  0  0  0  0  0
  134.8525  125.0379  128.0859 C   0  0  0  0  0  0  0  0  0  0  0  0
  138.0176  122.8302  127.0360 Cl  0  0  0  0  0  0  0  0  0  0  0  0
 11 12  1  0  0  0
 12  5  1  0  0  0
  5  6  2  0  0  0
  6  7  1  0  0  0
  7  8  2  0  0  0
  8  9  1  0  0  0
  9 10  2  0  0  0
  9 13  1  0  0  0
 13 14  1  0  0  0
  7  1  1  0  0  0
  1  2  1  0  0  0
  2  3  2  0  0  0
  2 15  1  0  0  0
 15 16  2  0  0  0
 16 17  1  0  0  0
 17 18  2  0  0  0
 18 19  1  0  0  0
 18 20  1  0  0  0
 20 21  2  0  0  0
 21 22  1  0  0  0
 22 23  2  0  0  0
 23 24  1  0  0  0
 24 25  2  0  0  0
 23 26  1  0  0  0
 10  5  1  0  0  0
 19 15  1  0  0  0
 25 20  1  0  0  0
  1  4  1  0  0  0
M  END
> <minimizedAffinity>
-7.77646

$$$$



 26 28  0  0  0  0  0  0  0  0999 V2000
  134.1214  129.6788  129.8404 N   0  0  0  0  0  0  0  0  0  0  0  0
  133.7374  129.1888  128.5982 C   0  0  0  0  0  0  0  0  0  0  0  0
  133.4087  129.8962  127.6501 O   0  0  0  0  0  0  0  0  0  0  0  0
  134.3702  128.9965  130.5409 H   0  0  0  0  0  0  0  0  0  0  0  0
  135.0614  133.2522  129.7405 C   0  0  0  0  0  0  0  0  0  0  0  0
  134.9159  131.9002  129.4188 C   0  0  0  0  0  0  0  0  0  0  0  0
  134.2107  131.0267  130.2566 C   0  0  0  0  0  0  0  0  0  0  0  0
  133.6471  131.5279  131.4327 C   0  0  0  0  0  0  0  0  0  0  0  0
  133.7863  132.8792  131.7650 C   0  0  0  0  0  0  0  0  0  0  0  0
  134.4939  133.7361  130.9160 C   0  0  0  0  0  0  0  0  0  0  0  0
  137.1767  133.7465  128.7756 C   0  0  0  0  0  0  0  0  0  0  0  0
  135.7743  133.9821  128.8287 O   0  0  0  0  0  0  0  0  0  0  0  0
  133.2812  133.4855  132.8853 O   0  0  0  0  0  0  0  0  0  0  0  0
  132.2299  134.4253  132.6911 C   0  0  0  0  0  0  0  0  0  0  0  0
  133.7549  127.7333  128.5033 C   0  0  0  0  0  0  0  0  0  0  0  0
  132.7720  126.7592  128.4570 C   0  0  0  0  0  0  0  0  0  0  0  0
  133.4341  125.5076  128.3640 C   0  0  0  0  0  0  0  0  0  0  0  0
  134.7881  125.7722  128.3576 C   0  0  0  0  0  0  0  0  0  0  0  0
  134.9794  127.1205  128.4420 O   0  0  0  0  0  0  0  0  0  0  0  0
  135.9954  124.9518  128.2832 C   0  0  0  0  0  0  0  0  0  0  0  0
  136.5738  124.6202  127.0467 C   0  0  0  0  0  0  0  0  0  0  0  0
  137.7296  123.8348  126.9784 C   0  0  0  0  0  0  0  0  0  0  0  0
  138.3201  123.3717  128.1499 C   0  0  0  0  0  0  0  0  0  0  0  0
  137.7651  123.6873  129.3869 C   0  0  0  0  0  0  0  0  0  0  0  0
  136.6086  124.4734  129.4520 C   0  0  0  0  0  0  0  0  0  0  0  0
  139.7411  122.4059  128.0707 Cl  0  0  0  0  0  0  0  0  0  0  0  0
 11 12  1  0  0  0
 12  5  1  0  0  0
  5  6  2  0  0  0
  6  7  1  0  0  0
  7  8  2  0  0  0
  8  9  1  0  0  0
  9 10  2  0  0  0
  9 13  1  0  0  0
 13 14  1  0  0  0
  7  1  1  0  0  0
  1  2  1  0  0  0
  2  3  2  0  0  0
  2 15  1  0  0  0
 15 16  2  0  0  0
 16 17  1  0  0  0
 17 18  2  0  0  0
 18 19  1  0  0  0
 18 20  1  0  0  0
 20 21  2  0  0  0
 21 22  1  0  0  0
 22 23  2  0  0  0
 23 24  1  0  0  0
 24 25  2  0  0  0
 23 26  1  0  0  0
 10  5  1  0  0  0
 19 15  1  0  0  0
 25 20  1  0  0  0
  1  4  1  0  0  0
M  END
> <minimizedAffinity>
-7.68160

$$$$



 26 28  0  0  0  0  0  0  0  0999 V2000
  138.9949  120.7157  128.5101 N   0  0  0  0  0  0  0  0  0  0  0  0
  138.8770  122.0858  128.3111 C   0  0  0  0  0  0  0  0  0  0  0  0
  139.8098  122.8785  128.4056 O   0  0  0  0  0  0  0  0  0  0  0  0
  138.1548  120.1671  128.4031 H   0  0  0  0  0  0  0  0  0  0  0  0
  142.1180  118.8027  128.0109 C   0  0  0  0  0  0  0  0  0  0  0  0
  140.9515  119.5378  127.7838 C   0  0  0  0  0  0  0  0  0  0  0  0
  140.1537  119.9799  128.8470 C   0  0  0  0  0  0  0  0  0  0  0  0
  140.5415  119.6741  130.1539 C   0  0  0  0  0  0  0  0  0  0  0  0
  141.7070  118.9391  130.3934 C   0  0  0  0  0  0  0  0  0  0  0  0
  142.4908  118.5063  129.3191 C   0  0  0  0  0  0  0  0  0  0  0  0
  142.1128  118.6200  125.6411 C   0  0  0  0  0  0  0  0  0  0  0  0
  142.7936  118.4400  126.8776 O   0  0  0  0  0  0  0  0  0  0  0  0
  142.1888  118.5787  131.6245 O   0  0  0  0  0  0  0  0  0  0  0  0
  143.3715  119.2333  132.0706 C   0  0  0  0  0  0  0  0  0  0  0  0
  137.5270  122.5222  127.9724 C   0  0  0  0  0  0  0  0  0  0  0  0
  136.4189  121.8934  127.4301 C   0  0  0  0  0  0  0  0  0  0  0  0
  135.3911  122.8678  127.3444 C   0  0  0  0  0  0  0  0  0  0  0  0
  135.9154  124.0451  127.8366 C   0  0  0  0  0  0  0  0  0  0  0  0
  137.2087  123.8330  128.2162 O   0  0  0  0  0  0  0  0  0  0  0  0
  135.4006  125.3998  128.0258 C   0  0  0  0  0  0  0  0  0  0  0  0
  136.2426  126.5192  127.9182 C   0  0  0  0  0  0  0  0  0  0  0  0
  135.7470  127.8149  128.0997 C   0  0  0  0  0  0  0  0  0  0  0  0
  134.4000  128.0044  128.3917 C   0  0  0  0  0  0  0  0  0  0  0  0
  133.5462  126.9106  128.5034 C   0  0  0  0  0  0  0  0  0  0  0  0
  134.0450  125.6154  128.3211 C   0  0  0  0  0  0  0  0  0  0  0  0
  133.7864  129.5955  128.6156 Cl  0  0  0  0  0  0  0  0  0  0  0  0
 11 12  1  0  0  0
 12  5  1  0  0  0
  5  6  2  0  0  0
  6  7  1  0  0  0
  7  8  2  0  0  0
  8  9  1  0  0  0
  9 10  2  0  0  0
  9 13  1  0  0  0
 13 14  1  0  0  0
  7  1  1  0  0  0
  1  2  1  0  0  0
  2  3  2  0  0  0
  2 15  1  0  0  0
 15 16  2  0  0  0
 16 17  1  0  0  0
 17 18  2  0  0  0
 18 19  1  0  0  0
 18 20  1  0  0  0
 20 21  2  0  0  0
 21 22  1  0  0  0
 22 23  2  0  0  0
 23 24  1  0  0  0
 24 25  2  0  0  0
 23 26  1  0  0  0
 10  5  1  0  0  0
 19 15  1  0  0  0
 25 20  1  0  0  0
  1  4  1  0  0  0
M  END
> <minimizedAffinity>
-7.53212

$$$$



 26 28  0  0  0  0  0  0  0  0999 V2000
  138.6928  121.0601  128.0606 N   0  0  0  0  0  0  0  0  0  0  0  0
  138.5387  122.4360  128.1779 C   0  0  0  0  0  0  0  0  0  0  0  0
  139.4402  123.2053  128.4988 O   0  0  0  0  0  0  0  0  0  0  0  0
  137.8764  120.5331  127.7885 H   0  0  0  0  0  0  0  0  0  0  0  0
  141.2777  119.1804  129.9173 C   0  0  0  0  0  0  0  0  0  0  0  0
  140.1478  119.9387  129.5997 C   0  0  0  0  0  0  0  0  0  0  0  0
  139.8596  120.2917  128.2751 C   0  0  0  0  0  0  0  0  0  0  0  0
  140.7252  119.8725  127.2616 C   0  0  0  0  0  0  0  0  0  0  0  0
  141.8591  119.1132  127.5676 C   0  0  0  0  0  0  0  0  0  0  0  0
  142.1303  118.7704  128.8960 C   0  0  0  0  0  0  0  0  0  0  0  0
  142.7289  119.1018  131.7982 C   0  0  0  0  0  0  0  0  0  0  0  0
  141.4291  118.9130  131.2508 O   0  0  0  0  0  0  0  0  0  0  0  0
  142.7783  118.6456  126.6653 O   0  0  0  0  0  0  0  0  0  0  0  0
  142.3288  118.4525  125.3286 C   0  0  0  0  0  0  0  0  0  0  0  0
  137.1910  122.9095  127.8831 C   0  0  0  0  0  0  0  0  0  0  0  0
  136.0519  122.3140  127.3683 C   0  0  0  0  0  0  0  0  0  0  0  0
  135.0470  123.3147  127.3215 C   0  0  0  0  0  0  0  0  0  0  0  0
  135.6153  124.4736  127.8084 C   0  0  0  0  0  0  0  0  0  0  0  0
  136.9133  124.2254  128.1478 O   0  0  0  0  0  0  0  0  0  0  0  0
  135.1408  125.8390  128.0247 C   0  0  0  0  0  0  0  0  0  0  0  0
  133.7688  126.1255  128.1186 C   0  0  0  0  0  0  0  0  0  0  0  0
  133.3174  127.4335  128.3257 C   0  0  0  0  0  0  0  0  0  0  0  0
  134.2369  128.4711  128.4414 C   0  0  0  0  0  0  0  0  0  0  0  0
  135.6016  128.2117  128.3518 C   0  0  0  0  0  0  0  0  0  0  0  0
  136.0501  126.9020  128.1446 C   0  0  0  0  0  0  0  0  0  0  0  0
  133.6865  130.0806  128.6962 Cl  0  0  0  0  0  0  0  0  0  0  0  0
 11 12  1  0  0  0
 12  5  1  0  0  0
  5  6  2  0  0  0
  6  7  1  0  0  0
  7  8  2  0  0  0
  8  9  1  0  0  0
  9 10  2  0  0  0
  9 13  1  0  0  0
 13 14  1  0  0  0
  7  1  1  0  0  0
  1  2  1  0  0  0
  2  3  2  0  0  0
  2 15  1  0  0  0
 15 16  2  0  0  0
 16 17  1  0  0  0
 17 18  2  0  0  0
 18 19  1  0  0  0
 18 20  1  0  0  0
 20 21  2  0  0  0
 21 22  1  0  0  0
 22 23  2  0  0  0
 23 24  1  0  0  0
 24 25  2  0  0  0
 23 26  1  0  0  0
 10  5  1  0  0  0
 19 15  1  0  0  0
 25 20  1  0  0  0
  1  4  1  0  0  0
M  END
> <minimizedAffinity>
-7.04529

$$$$



 26 28  0  0  0  0  0  0  0  0999 V2000
  134.9528  130.2455  129.1314 N   0  0  0  0  0  0  0  0  0  0  0  0
  134.1440  130.9263  130.0329 C   0  0  0  0  0  0  0  0  0  0  0  0
  133.1807  130.4271  130.6076 O   0  0  0  0  0  0  0  0  0  0  0  0
  135.7163  130.7645  128.7240 H   0  0  0  0  0  0  0  0  0  0  0  0
  133.3353  127.0778  128.1252 C   0  0  0  0  0  0  0  0  0  0  0  0
  133.5496  128.3939  128.5432 C   0  0  0  0  0  0  0  0  0  0  0  0
  134.8448  128.9023  128.7048 C   0  0  0  0  0  0  0  0  0  0  0  0
  135.9345  128.0687  128.4404 C   0  0  0  0  0  0  0  0  0  0  0  0
  135.7323  126.7498  128.0215 C   0  0  0  0  0  0  0  0  0  0  0  0
  134.4316  126.2600  127.8658 C   0  0  0  0  0  0  0  0  0  0  0  0
  131.1185  127.7320  127.5706 C   0  0  0  0  0  0  0  0  0  0  0  0
  132.0188  126.7223  128.0121 O   0  0  0  0  0  0  0  0  0  0  0  0
  136.7159  125.8404  127.7330 O   0  0  0  0  0  0  0  0  0  0  0  0
  136.8423  125.4372  126.3738 C   0  0  0  0  0  0  0  0  0  0  0  0
  134.5360  132.3143  130.2508 C   0  0  0  0  0  0  0  0  0  0  0  0
  133.9660  133.3820  130.9234 C   0  0  0  0  0  0  0  0  0  0  0  0
  134.8446  134.4853  130.7681 C   0  0  0  0  0  0  0  0  0  0  0  0
  135.9091  134.0438  130.0098 C   0  0  0  0  0  0  0  0  0  0  0  0
  135.7197  132.7291  129.6981 O   0  0  0  0  0  0  0  0  0  0  0  0
  137.1322  134.6592  129.4986 C   0  0  0  0  0  0  0  0  0  0  0  0
  138.0170  133.9432  128.6752 C   0  0  0  0  0  0  0  0  0  0  0  0
  139.1871  134.5349  128.1871 C   0  0  0  0  0  0  0  0  0  0  0  0
  139.4848  135.8528  128.5189 C   0  0  0  0  0  0  0  0  0  0  0  0
  138.6233  136.5824  129.3334 C   0  0  0  0  0  0  0  0  0  0  0  0
  137.4533  135.9877  129.8201 C   0  0  0  0  0  0  0  0  0  0  0  0
  140.9221  136.5842  127.9212 Cl  0  0  0  0  0  0  0  0  0  0  0  0
 11 12  1  0  0  0
 12  5  1  0  0  0
  5  6  2  0  0  0
  6  7  1  0  0  0
  7  8  2  0  0  0
  8  9  1  0  0  0
  9 10  2  0  0  0
  9 13  1  0  0  0
 13 14  1  0  0  0
  7  1  1  0  0  0
  1  2  1  0  0  0
  2  3  2  0  0  0
  2 15  1  0  0  0
 15 16  2  0  0  0
 16 17  1  0  0  0
 17 18  2  0  0  0
 18 19  1  0  0  0
 18 20  1  0  0  0
 20 21  2  0  0  0
 21 22  1  0  0  0
 22 23  2  0  0  0
 23 24  1  0  0  0
 24 25  2  0  0  0
 23 26  1  0  0  0
 10  5  1  0  0  0
 19 15  1  0  0  0
 25 20  1  0  0  0
  1  4  1  0  0  0
M  END
> <minimizedAffinity>
-6.74281

$$$$
